<?xml version="1.0" encoding="UTF-8"?>

<!-- generated on 2026-06-04 00:28:23 by Eclipse SUMO netedit Version 1.24.0
<neteditConfiguration xmlns:xsi="http://www.w3.org/2001/XMLSchema-instance" xsi:noNamespaceSchemaLocation="http://sumo.dlr.de/xsd/neteditConfiguration.xsd">

    <input>
        <sumocfg-file value="C:\Users\EmreKeremBektas\Desktop\gamma\environment\tubitak.sumocfg"/>
        <sumo-net-file value="C:\Users\EmreKeremBektas\Desktop\gamma\environment\tubitak.net.xml"/>
    </input>

    <output>
        <output-file value="C:\Users\EmreKeremBektas\Desktop\gamma\environment\tubitak.net.xml"/>
    </output>

    <processing>
        <geometry.min-radius.fix.railways value="false"/>
        <geometry.avoid-overlap value="false"/>
        <geometry.max-grade.fix value="false"/>
        <offset.disable-normalization value="true"/>
        <lefthand value="0"/>
    </processing>

    <junctions>
        <no-turnarounds value="true"/>
        <junctions.corner-detail value="5"/>
        <junctions.limit-turn-speed value="5.50"/>
        <rectangular-lane-cut value="0"/>
    </junctions>

    <pedestrian>
        <walkingareas value="0"/>
    </pedestrian>

    <netedit>
        <ignore.additionalelements value="0"/>
        <ignore.routeelements value="0"/>
    </netedit>

</neteditConfiguration>
-->

<net version="1.20" junctionCornerDetail="5" limitTurnSpeed="5.50" avoidOverlap="0" xmlns:xsi="http://www.w3.org/2001/XMLSchema-instance" xsi:noNamespaceSchemaLocation="http://sumo.dlr.de/xsd/net_file.xsd">

    <location netOffset="0.00,0.00" convBoundary="-306.85,-156.25,628.92,63.85" origBoundary="-10000000000.00,-10000000000.00,10000000000.00,10000000000.00" projParameter="!"/>

    <edge id=":J11_0" function="internal">
        <lane id=":J11_0_0" index="0" speed="7.24" length="8.22" width="5.00" shape="230.88,-112.88 231.16,-110.73 232.00,-108.98 233.40,-107.64 235.36,-106.71"/>
    </edge>
    <edge id=":J11_1" function="internal">
        <lane id=":J11_1_0" index="0" speed="7.36" length="8.27" width="5.00" shape="221.50,-106.53 223.42,-107.52 224.78,-108.91 225.60,-110.70 225.88,-112.88"/>
    </edge>
    <edge id=":J11_2" function="internal">
        <lane id=":J11_2_0" index="0" speed="8.00" length="14.12" width="5.00" shape="221.50,-106.53 224.98,-107.50 228.41,-107.84 231.85,-107.58 235.36,-106.71"/>
    </edge>
    <edge id=":J13_0" function="internal">
        <lane id=":J13_0_0" index="0" speed="7.19" length="9.04" width="5.00" shape="274.69,-66.38 272.29,-66.05 270.43,-65.07 269.11,-63.43 268.32,-61.15"/>
    </edge>
    <edge id=":J13_1" function="internal">
        <lane id=":J13_1_0" index="0" speed="7.58" length="9.27" width="5.00" shape="267.62,-76.26 268.63,-74.12 270.15,-72.59 272.17,-71.68 274.68,-71.38"/>
    </edge>
    <edge id=":J13_2" function="internal">
        <lane id=":J13_2_0" index="0" speed="8.00" length="15.27" width="5.00" shape="267.62,-76.26 268.49,-72.57 268.90,-68.75 268.83,-64.91 268.32,-61.15"/>
    </edge>
    <edge id=":J18_0" function="internal">
        <lane id=":J18_0_0" index="0" speed="10.00" length="8.92" width="5.00" shape="-240.23,61.35 -237.65,60.57 -236.23,58.85 -234.81,57.13 -232.23,56.35"/>
        <lane id=":J18_0_1" index="1" speed="10.00" length="8.92" width="5.00" shape="-240.23,61.35 -232.23,61.35"/>
    </edge>
    <edge id=":J19_0" function="internal">
        <lane id=":J19_0_0" index="0" speed="10.00" length="8.00" width="5.00" shape="554.72,61.32 562.72,61.32"/>
    </edge>
    <edge id=":J20_0" function="internal">
        <lane id=":J20_0_0" index="0" speed="9.28" length="3.67" width="5.00" shape="47.28,56.30 48.37,56.30 49.13,56.25 49.84,56.02 50.80,55.53"/>
    </edge>
    <edge id=":J20_1" function="internal">
        <lane id=":J20_1_0" index="0" speed="10.00" length="4.31" width="5.00" shape="47.28,61.30 51.60,61.30"/>
    </edge>
    <edge id=":J22_0" function="internal">
        <lane id=":J22_0_0" index="0" speed="10.00" length="3.82" width="5.00" shape="272.20,55.68 273.28,56.04 274.03,56.23 274.81,56.30 275.94,56.31"/>
    </edge>
    <edge id=":J22_1" function="internal">
        <lane id=":J22_1_0" index="0" speed="10.00" length="3.84" width="5.00" shape="272.10,61.31 275.94,61.31"/>
    </edge>
    <edge id=":J3_0" function="internal">
        <lane id=":J3_0_0" index="0" speed="7.14" length="10.49" width="5.00" shape="92.72,-66.15 89.88,-65.75 87.84,-64.53 86.62,-62.50 86.21,-59.65"/>
    </edge>
    <edge id=":J3_1" function="internal">
        <lane id=":J3_1_0" index="0" speed="8.00" length="18.01" width="5.00" shape="92.72,-66.15 74.72,-66.16"/>
    </edge>
    <edge id=":J3_2" function="internal">
        <lane id=":J3_2_0" index="0" speed="8.00" length="6.68" width="5.00" shape="92.72,-66.15 88.64,-67.19 86.65,-68.64"/>
    </edge>
    <edge id=":J3_12" function="internal">
        <lane id=":J3_12_0" index="0" speed="8.00" length="10.89" width="5.00" shape="86.65,-68.64 84.94,-69.88 82.26,-73.58 81.24,-77.67"/>
    </edge>
    <edge id=":J3_3" function="internal">
        <lane id=":J3_3_0" index="0" speed="7.13" length="10.48" width="5.00" shape="86.24,-77.66 86.64,-74.82 87.85,-72.78 89.88,-71.56 92.73,-71.15"/>
    </edge>
    <edge id=":J3_4" function="internal">
        <lane id=":J3_4_0" index="0" speed="8.00" length="18.01" width="5.00" shape="86.24,-77.66 86.21,-59.65"/>
    </edge>
    <edge id=":J3_5" function="internal">
        <lane id=":J3_5_0" index="0" speed="8.00" length="17.58" width="5.00" shape="86.24,-77.66 85.19,-73.57 82.51,-69.88 78.80,-67.19 74.72,-66.16"/>
    </edge>
    <edge id=":J3_6" function="internal">
        <lane id=":J3_6_0" index="0" speed="7.15" length="10.50" width="5.00" shape="74.72,-71.16 77.56,-71.57 79.60,-72.79 80.82,-74.82 81.24,-77.67"/>
    </edge>
    <edge id=":J3_7" function="internal">
        <lane id=":J3_7_0" index="0" speed="8.00" length="18.01" width="5.00" shape="74.72,-71.16 92.73,-71.15"/>
    </edge>
    <edge id=":J3_8" function="internal">
        <lane id=":J3_8_0" index="0" speed="8.00" length="6.69" width="5.00" shape="74.72,-71.16 78.80,-70.12 80.80,-68.67"/>
    </edge>
    <edge id=":J3_13" function="internal">
        <lane id=":J3_13_0" index="0" speed="8.00" length="10.88" width="5.00" shape="80.80,-68.67 82.50,-67.44 85.18,-63.74 86.21,-59.65"/>
    </edge>
    <edge id=":J3_9" function="internal">
        <lane id=":J3_9_0" index="0" speed="7.13" length="10.48" width="5.00" shape="81.21,-59.66 80.81,-62.50 79.59,-64.53 77.56,-65.75 74.72,-66.16"/>
    </edge>
    <edge id=":J3_10" function="internal">
        <lane id=":J3_10_0" index="0" speed="8.00" length="18.01" width="5.00" shape="81.21,-59.66 81.24,-77.67"/>
    </edge>
    <edge id=":J3_11" function="internal">
        <lane id=":J3_11_0" index="0" speed="8.00" length="17.57" width="5.00" shape="81.21,-59.66 82.25,-63.74 84.94,-67.44 88.64,-70.12 92.73,-71.15"/>
    </edge>
    <edge id=":J5_0" function="internal">
        <lane id=":J5_0_0" index="0" speed="7.22" length="8.49" width="5.00" shape="188.96,-61.36 188.07,-63.43 186.73,-64.90 184.94,-65.79 182.71,-66.09"/>
    </edge>
    <edge id=":J5_1" function="internal">
        <lane id=":J5_1_0" index="0" speed="8.00" length="14.46" width="5.00" shape="188.96,-61.36 188.21,-64.95 188.02,-68.51 188.39,-72.05 189.36,-75.59"/>
    </edge>
    <edge id=":J5_2" function="internal">
        <lane id=":J5_2_0" index="0" speed="7.47" length="8.61" width="5.00" shape="182.72,-71.09 185.02,-71.37 186.89,-72.21 188.34,-73.62 189.36,-75.59"/>
    </edge>
    <edge id=":J6_0" function="internal">
        <lane id=":J6_0_0" index="0" speed="8.00" length="4.13" width="5.00" shape="86.14,13.94 86.14,18.07"/>
    </edge>
    <edge id=":J6_1" function="internal">
        <lane id=":J6_1_0" index="0" speed="9.00" length="4.09" width="5.00" shape="80.25,17.87 80.76,16.77 81.02,15.98 81.12,15.15 81.14,13.94"/>
    </edge>
    <edge id=":J8_0" function="internal">
        <lane id=":J8_0_0" index="0" speed="7.17" length="9.31" width="5.00" shape="226.38,-25.20 226.03,-27.68 225.01,-29.57 223.30,-30.88 220.90,-31.61"/>
    </edge>
    <edge id=":J8_1" function="internal">
        <lane id=":J8_1_0" index="0" speed="7.20" length="9.33" width="5.00" shape="236.81,-31.69 234.43,-30.94 232.73,-29.60 231.72,-27.69 231.38,-25.20"/>
    </edge>
    <edge id=":J8_2" function="internal">
        <lane id=":J8_2_0" index="0" speed="8.00" length="15.97" width="5.00" shape="236.81,-31.69 232.94,-31.21 228.86,-31.04 224.78,-31.17 220.90,-31.61"/>
    </edge>
    <edge id=":J9_0" function="internal">
        <lane id=":J9_0_0" index="0" speed="8.00" length="4.21" width="5.00" shape="226.42,18.04 226.42,13.83"/>
    </edge>
    <edge id=":J9_1" function="internal">
        <lane id=":J9_1_0" index="0" speed="9.00" length="4.16" width="5.00" shape="231.42,13.83 231.44,15.06 231.55,15.90 231.84,16.70 232.38,17.80"/>
    </edge>

    <edge id="-E0" from="J3" to="J2" priority="-1" length="45.00">
        <lane id="-E0_0" index="0" speed="8.00" length="45.00" width="5.00" shape="74.72,-66.16 33.50,-66.16"/>
    </edge>
    <edge id="-E1" from="J4" to="J3" priority="-1" length="70.00">
        <lane id="-E1_0" index="0" speed="8.00" length="70.00" width="5.00" shape="86.36,-148.39 86.24,-77.66"/>
    </edge>
    <edge id="-E2" from="J5" to="J3" priority="-1">
        <lane id="-E2_0" index="0" speed="8.00" length="89.99" width="5.00" shape="182.71,-66.09 92.72,-66.15"/>
    </edge>
    <edge id="-E3" from="J6" to="J3" priority="-1" length="75.00">
        <lane id="-E3_0" index="0" speed="8.00" length="75.00" width="5.00" shape="81.14,13.94 81.21,-59.66"/>
    </edge>
    <edge id="-E5" from="J9" to="J8" priority="-1">
        <lane id="-E5_0" index="0" speed="8.00" length="39.03" width="5.00" shape="226.42,13.83 226.38,-25.20"/>
    </edge>
    <edge id="-E7" from="J12" to="J13" priority="-1" length="45.00">
        <lane id="-E7_0" index="0" speed="8.00" length="45.00" width="5.00" shape="318.15,-66.43 274.69,-66.38"/>
    </edge>
    <edge id="-E7.20" from="J10" to="J11" priority="-1" length="45.00">
        <lane id="-E7.20_0" index="0" speed="8.00" length="45.00" width="5.00" shape="230.86,-156.25 230.88,-112.88"/>
    </edge>
    <edge id="E0" from="J2" to="J3" priority="-1" length="45.00">
        <lane id="E0_0" index="0" speed="8.00" length="45.00" width="5.00" shape="33.50,-71.16 74.72,-71.16"/>
    </edge>
    <edge id="E1" from="J3" to="J4" priority="-1" length="70.00">
        <lane id="E1_0" index="0" speed="8.00" length="70.00" width="5.00" shape="81.24,-77.67 81.36,-148.39"/>
    </edge>
    <edge id="E14" from="J13" to="J8" priority="-1" length="45.00" shape="267.31,-68.87 264.40,-54.25 256.39,-43.20 245.35,-35.68 228.87,-32.87">
        <lane id="E14_0" index="0" speed="8.00" length="45.00" width="5.00" shape="268.32,-61.15 266.75,-53.23 258.16,-41.38 246.31,-33.31 236.81,-31.69"/>
    </edge>
    <edge id="E15" from="J8" to="J5" priority="-1" length="45.00" shape="228.87,-32.87 214.48,-35.17 203.11,-42.06 193.79,-53.51 189.51,-68.58">
        <lane id="E15_0" index="0" speed="8.00" length="45.00" width="5.00" shape="220.90,-31.61 213.60,-32.78 201.44,-40.15 191.53,-52.33 188.96,-61.36"/>
    </edge>
    <edge id="E16" from="J5" to="J11" priority="-1" length="45.00" shape="189.51,-68.58 194.10,-81.44 202.25,-91.65 213.25,-100.89 228.38,-106.36">
        <lane id="E16_0" index="0" speed="8.00" length="45.00" width="5.00" shape="189.36,-75.59 191.89,-82.67 200.45,-93.40 211.98,-103.09 221.50,-106.53"/>
    </edge>
    <edge id="E17" from="J11" to="J13" priority="-1" length="45.00" shape="228.38,-106.36 243.84,-101.30 254.53,-94.09 263.02,-82.56 267.31,-68.87">
        <lane id="E17_0" index="0" speed="8.00" length="45.00" width="5.00" shape="235.36,-106.71 244.95,-103.57 256.29,-95.92 265.28,-83.71 267.62,-76.26"/>
    </edge>
    <edge id="E19" from="J6" to="J14" priority="-1" length="30.00">
        <lane id="E19_0" index="0" speed="8.00" length="30.00" width="5.00" shape="86.14,18.07 86.10,46.70"/>
    </edge>
    <edge id="E2" from="J3" to="J5" priority="-1">
        <lane id="E2_0" index="0" speed="8.00" length="89.99" width="5.00" shape="92.73,-71.15 182.72,-71.09"/>
    </edge>
    <edge id="E21" from="J15" to="J9" priority="-1" length="30.00">
        <lane id="E21_0" index="0" speed="8.00" length="30.00" width="5.00" shape="226.45,46.69 226.42,18.04"/>
    </edge>
    <edge id="E22" from="J16" to="J18" priority="-1" length="65.00">
        <lane id="E22_0" index="0" speed="10.00" length="65.00" width="5.00" shape="-306.85,61.35 -240.23,61.35"/>
    </edge>
    <edge id="E23" from="J20" to="J6" priority="-1" length="50.00" shape="33.74,63.80 46.51,60.84 58.58,53.98 67.73,44.96 75.11,34.44 83.64,16.57">
        <lane id="E23_0" index="0" speed="10.00" length="50.00" width="5.00" shape="50.80,55.53 57.06,51.97 65.81,43.34 72.94,33.17 80.25,17.87"/>
    </edge>
    <edge id="E24" from="J20" to="J22" priority="-1" length="220.00">
        <lane id="E24_0" index="0" speed="10.00" length="220.00" width="5.00" shape="51.60,61.30 272.10,61.31"/>
    </edge>
    <edge id="E25" from="J9" to="J22" priority="-1" length="50.00" shape="228.92,16.54 237.13,32.47 245.75,42.07 256.54,50.83 265.52,56.00 287.97,63.81">
        <lane id="E25_0" index="0" speed="10.00" length="50.00" width="5.00" shape="232.38,17.80 239.20,31.04 247.48,40.25 257.96,48.76 266.56,53.72 272.20,55.68"/>
    </edge>
    <edge id="E3" from="J3" to="J6" priority="-1" length="75.00">
        <lane id="E3_0" index="0" speed="8.00" length="75.00" width="5.00" shape="86.21,-59.65 86.14,13.94"/>
    </edge>
    <edge id="E4" from="J22" to="J19" priority="-1" length="280.00">
        <lane id="E4_0" index="0" speed="10.00" length="280.00" width="5.00" shape="275.94,56.31 554.72,56.32"/>
        <lane id="E4_1" index="1" speed="10.00" length="280.00" width="5.00" shape="275.94,61.31 554.72,61.32"/>
    </edge>
    <edge id="E5" from="J8" to="J9" priority="-1">
        <lane id="E5_0" index="0" speed="8.00" length="39.03" width="5.00" shape="231.38,-25.20 231.42,13.83"/>
    </edge>
    <edge id="E6" from="J18" to="J20" priority="-1" length="280.00">
        <lane id="E6_0" index="0" speed="10.00" length="280.00" width="5.00" shape="-232.23,56.35 47.28,56.30"/>
        <lane id="E6_1" index="1" speed="10.00" length="280.00" width="5.00" shape="-232.23,61.35 47.28,61.30"/>
    </edge>
    <edge id="E7" from="J13" to="J12" priority="-1" length="45.00">
        <lane id="E7_0" index="0" speed="8.00" length="45.00" width="5.00" shape="274.68,-71.38 318.15,-71.43"/>
    </edge>
    <edge id="E7.20" from="J11" to="J10" priority="-1" length="45.00">
        <lane id="E7.20_0" index="0" speed="8.00" length="45.00" width="5.00" shape="225.88,-112.88 225.86,-156.25"/>
    </edge>
    <edge id="E8" from="J19" to="J17" priority="-1" length="65.00">
        <lane id="E8_0" index="0" speed="10.00" length="65.00" width="5.00" shape="562.72,61.32 628.92,61.28"/>
    </edge>

    <junction id="J10" type="dead_end" x="228.36" y="-156.25" incLanes="E7.20_0" intLanes="" shape="228.36,-156.25 223.36,-156.25 228.36,-156.25"/>
    <junction id="J11" type="priority" x="228.38" y="-106.36" incLanes="-E7.20_0 E16_0" intLanes=":J11_0_0 :J11_1_0 :J11_2_0" shape="234.58,-104.33 236.13,-109.08 234.60,-109.91 234.07,-110.48 233.68,-111.17 233.45,-111.97 233.38,-112.88 223.38,-112.88 223.08,-111.10 222.70,-110.37 222.17,-109.77 221.49,-109.27 220.65,-108.88 222.35,-104.18 224.85,-105.05 226.79,-105.57 228.44,-105.75 230.10,-105.60 232.05,-105.12">
        <request index="0" response="100" foes="100" cont="0"/>
        <request index="1" response="000" foes="000" cont="0"/>
        <request index="2" response="000" foes="001" cont="0"/>
    </junction>
    <junction id="J12" type="dead_end" x="318.15" y="-68.93" incLanes="E7_0" intLanes="" shape="318.15,-68.93 318.14,-73.93 318.15,-68.93"/>
    <junction id="J13" type="priority" x="267.31" y="-68.87" incLanes="-E7_0 E17_0" intLanes=":J13_0_0 :J13_1_0 :J13_2_0" shape="274.69,-63.88 274.68,-73.88 272.52,-74.22 271.66,-74.66 270.96,-75.27 270.40,-76.05 270.00,-77.00 265.23,-75.51 266.09,-72.65 266.62,-70.48 266.84,-68.64 266.77,-66.79 266.44,-64.57 265.87,-61.64 270.77,-60.66 271.49,-62.45 272.07,-63.07 272.80,-63.52 273.67,-63.79">
        <request index="0" response="100" foes="100" cont="0"/>
        <request index="1" response="000" foes="000" cont="0"/>
        <request index="2" response="000" foes="001" cont="0"/>
    </junction>
    <junction id="J14" type="dead_end" x="83.60" y="46.70" incLanes="E19_0" intLanes="" shape="88.60,46.71 83.60,46.70"/>
    <junction id="J15" type="dead_end" x="228.95" y="46.69" incLanes="" intLanes="" shape="228.95,46.69 223.95,46.69"/>
    <junction id="J16" type="dead_end" x="-306.85" y="63.85" incLanes="" intLanes="" shape="-306.85,63.85 -306.85,58.85"/>
    <junction id="J17" type="dead_end" x="628.92" y="63.78" incLanes="E8_0" intLanes="" shape="628.92,58.78 628.92,63.78"/>
    <junction id="J18" type="priority" x="-236.23" y="63.85" incLanes="E22_0" intLanes=":J18_0_0 :J18_0_1" shape="-232.23,63.85 -232.23,53.85 -235.35,55.15 -237.11,57.55 -238.33,58.48 -240.23,58.85 -240.23,63.85">
        <request index="0" response="00" foes="00" cont="0"/>
        <request index="1" response="00" foes="00" cont="0"/>
    </junction>
    <junction id="J19" type="priority" x="558.72" y="63.82" incLanes="E4_0 E4_1" intLanes=":J19_0_0" shape="562.72,63.82 562.72,58.82 559.60,57.52 557.84,55.12 556.62,54.19 554.72,53.82 554.72,63.82">
        <request index="0" response="0" foes="0" cont="0"/>
    </junction>
    <junction id="J2" type="dead_end" x="33.50" y="-68.66" incLanes="-E0_0" intLanes="" shape="33.50,-68.66 33.50,-63.66 33.50,-68.66"/>
    <junction id="J20" type="priority" x="33.74" y="63.80" incLanes="E6_0 E6_1" intLanes=":J20_0_0 :J20_1_0" shape="51.60,63.80 51.60,58.80 51.40,58.06 50.20,52.99 49.19,53.53 48.81,53.68 48.42,53.75 47.93,53.79 47.28,53.80 47.28,63.80">
        <request index="0" response="00" foes="00" cont="0"/>
        <request index="1" response="00" foes="00" cont="0"/>
    </junction>
    <junction id="J22" type="priority" x="287.97" y="63.81" incLanes="E25_0 E24_0" intLanes=":J22_0_0 :J22_1_0" shape="275.94,63.81 275.94,53.81 274.84,53.79 274.45,53.75 274.07,53.66 273.62,53.52 273.02,53.32 271.38,58.04 272.10,58.81 272.10,63.81">
        <request index="0" response="00" foes="00" cont="0"/>
        <request index="1" response="00" foes="00" cont="0"/>
    </junction>
    <junction id="J3" type="priority" x="83.72" y="-68.66" incLanes="-E2_0 -E1_0 E0_0 -E3_0" intLanes=":J3_0_0 :J3_1_0 :J3_12_0 :J3_3_0 :J3_4_0 :J3_5_0 :J3_6_0 :J3_7_0 :J3_13_0 :J3_9_0 :J3_10_0 :J3_11_0" shape="92.72,-63.65 92.73,-73.65 90.51,-74.10 89.73,-74.66 89.18,-75.43 88.84,-76.43 88.74,-77.66 78.74,-77.67 78.29,-75.44 77.73,-74.66 76.95,-74.11 75.94,-73.77 74.72,-73.66 74.72,-63.66 76.94,-63.22 77.71,-62.66 78.27,-61.88 78.60,-60.88 78.71,-59.66 88.71,-59.65 89.16,-61.88 89.72,-62.65 90.50,-63.21 91.50,-63.54">
        <request index="0"  response="000000000000" foes="000100010000" cont="0"/>
        <request index="1"  response="000000000000" foes="111100110000" cont="0"/>
        <request index="2"  response="000011000000" foes="110011110000" cont="1"/>
        <request index="3"  response="000010000000" foes="100010000000" cont="0"/>
        <request index="4"  response="000110000111" foes="100110000111" cont="0"/>
        <request index="5"  response="111110000110" foes="111110000110" cont="0"/>
        <request index="6"  response="000000000000" foes="010000000100" cont="0"/>
        <request index="7"  response="000000000000" foes="110000111100" cont="0"/>
        <request index="8"  response="000000000011" foes="110000110011" cont="1"/>
        <request index="9"  response="000000000010" foes="000000100010" cont="0"/>
        <request index="10" response="000111000110" foes="000111100110" cont="0"/>
        <request index="11" response="000110011110" foes="000110111110" cont="0"/>
    </junction>
    <junction id="J4" type="dead_end" x="83.86" y="-148.39" incLanes="E1_0" intLanes="" shape="83.86,-148.39 78.86,-148.40 83.86,-148.39"/>
    <junction id="J5" type="priority" x="189.51" y="-68.58" incLanes="E15_0 E2_0" intLanes=":J5_0_0 :J5_1_0 :J5_2_0" shape="186.56,-60.68 191.37,-62.04 190.64,-64.69 190.21,-66.72 190.09,-68.44 190.29,-70.15 190.82,-72.15 191.71,-74.75 187.00,-76.43 186.07,-74.85 185.42,-74.29 184.65,-73.90 183.75,-73.66 182.72,-73.59 182.71,-63.59 184.48,-63.26 185.18,-62.86 185.76,-62.29 186.22,-61.57">
        <request index="0" response="000" foes="000" cont="0"/>
        <request index="1" response="000" foes="100" cont="0"/>
        <request index="2" response="010" foes="010" cont="0"/>
    </junction>
    <junction id="J6" type="priority" x="83.64" y="16.57" incLanes="E3_0 E23_0" intLanes=":J6_0_0 :J6_1_0" shape="88.64,13.95 78.64,13.94 78.61,15.03 78.55,15.42 78.44,15.79 78.26,16.22 77.99,16.79 82.51,18.94 83.14,17.79 83.36,17.54 83.51,17.50 83.61,17.68 83.64,18.07 88.64,18.08">
        <request index="0" response="00" foes="00" cont="0"/>
        <request index="1" response="00" foes="00" cont="0"/>
    </junction>
    <junction id="J8" type="priority" x="228.87" y="-32.87" incLanes="-E5_0 E14_0" intLanes=":J8_0_0 :J8_1_0 :J8_2_0" shape="223.88,-25.20 233.88,-25.21 234.25,-27.18 234.72,-27.93 235.37,-28.52 236.21,-28.95 237.23,-29.22 236.39,-34.15 233.21,-33.62 230.83,-33.31 228.85,-33.19 226.87,-33.29 224.49,-33.58 221.30,-34.08 220.51,-29.14 222.38,-28.47 223.03,-27.89 223.50,-27.15 223.78,-26.25">
        <request index="0" response="100" foes="100" cont="0"/>
        <request index="1" response="000" foes="000" cont="0"/>
        <request index="2" response="000" foes="001" cont="0"/>
    </junction>
    <junction id="J9" type="priority" x="228.92" y="16.54" incLanes="E21_0 E5_0" intLanes=":J9_0_0 :J9_1_0" shape="223.92,18.04 228.92,18.04 229.06,17.47 229.23,17.52 229.47,17.78 229.78,18.25 230.16,18.95 234.61,16.66 234.13,15.67 234.01,15.30 233.95,14.92 233.92,14.45 233.92,13.82 223.92,13.84">
        <request index="0" response="00" foes="00" cont="0"/>
        <request index="1" response="00" foes="00" cont="0"/>
    </junction>

    <junction id=":J3_12_0" type="internal" x="86.65" y="-68.64" incLanes=":J3_2_0 E0_0" intLanes=":J3_4_0 :J3_5_0 :J3_6_0 :J3_7_0 :J3_10_0 :J3_11_0"/>
    <junction id=":J3_13_0" type="internal" x="80.80" y="-68.67" incLanes=":J3_8_0 -E2_0" intLanes=":J3_0_0 :J3_1_0 :J3_4_0 :J3_5_0 :J3_10_0 :J3_11_0"/>

    <connection from="-E1" to="E2" fromLane="0" toLane="0" via=":J3_3_0" dir="r" state="m"/>
    <connection from="-E1" to="E3" fromLane="0" toLane="0" via=":J3_4_0" dir="s" state="m"/>
    <connection from="-E1" to="-E0" fromLane="0" toLane="0" via=":J3_5_0" dir="l" state="m"/>
    <connection from="-E2" to="E3" fromLane="0" toLane="0" via=":J3_0_0" dir="r" state="M"/>
    <connection from="-E2" to="-E0" fromLane="0" toLane="0" via=":J3_1_0" dir="s" state="M"/>
    <connection from="-E2" to="E1" fromLane="0" toLane="0" via=":J3_2_0" dir="l" state="m"/>
    <connection from="-E3" to="-E0" fromLane="0" toLane="0" via=":J3_9_0" dir="r" state="m"/>
    <connection from="-E3" to="E1" fromLane="0" toLane="0" via=":J3_10_0" dir="s" state="m"/>
    <connection from="-E3" to="E2" fromLane="0" toLane="0" via=":J3_11_0" dir="l" state="m"/>
    <connection from="-E5" to="E15" fromLane="0" toLane="0" via=":J8_0_0" dir="r" state="m" visibility="9.00"/>
    <connection from="-E7" to="E14" fromLane="0" toLane="0" via=":J13_0_0" dir="r" state="m" visibility="9.00"/>
    <connection from="-E7.20" to="E17" fromLane="0" toLane="0" via=":J11_0_0" dir="r" state="m" visibility="9.00"/>
    <connection from="E0" to="E1" fromLane="0" toLane="0" via=":J3_6_0" dir="r" state="M"/>
    <connection from="E0" to="E2" fromLane="0" toLane="0" via=":J3_7_0" dir="s" state="M"/>
    <connection from="E0" to="E3" fromLane="0" toLane="0" via=":J3_8_0" dir="l" state="m"/>
    <connection from="E14" to="E5" fromLane="0" toLane="0" via=":J8_1_0" dir="r" state="M"/>
    <connection from="E14" to="E15" fromLane="0" toLane="0" via=":J8_2_0" dir="s" state="M"/>
    <connection from="E15" to="-E2" fromLane="0" toLane="0" via=":J5_0_0" dir="r" state="M"/>
    <connection from="E15" to="E16" fromLane="0" toLane="0" via=":J5_1_0" dir="s" state="M"/>
    <connection from="E16" to="E7.20" fromLane="0" toLane="0" via=":J11_1_0" dir="r" state="M"/>
    <connection from="E16" to="E17" fromLane="0" toLane="0" via=":J11_2_0" dir="s" state="M"/>
    <connection from="E17" to="E7" fromLane="0" toLane="0" via=":J13_1_0" dir="r" state="M"/>
    <connection from="E17" to="E14" fromLane="0" toLane="0" via=":J13_2_0" dir="s" state="M"/>
    <connection from="E2" to="E16" fromLane="0" toLane="0" via=":J5_2_0" dir="r" state="m" visibility="9.00"/>
    <connection from="E21" to="-E5" fromLane="0" toLane="0" via=":J9_0_0" dir="s" state="M"/>
    <connection from="E22" to="E6" fromLane="0" toLane="0" via=":J18_0_0" dir="s" state="M"/>
    <connection from="E22" to="E6" fromLane="0" toLane="1" via=":J18_0_1" dir="s" state="M"/>
    <connection from="E23" to="-E3" fromLane="0" toLane="0" via=":J6_1_0" dir="s" state="M"/>
    <connection from="E24" to="E4" fromLane="0" toLane="1" via=":J22_1_0" dir="s" state="M"/>
    <connection from="E25" to="E4" fromLane="0" toLane="0" via=":J22_0_0" dir="s" state="M"/>
    <connection from="E3" to="E19" fromLane="0" toLane="0" via=":J6_0_0" dir="s" state="M"/>
    <connection from="E4" to="E8" fromLane="1" toLane="0" via=":J19_0_0" dir="s" state="M"/>
    <connection from="E5" to="E25" fromLane="0" toLane="0" via=":J9_1_0" dir="s" state="M"/>
    <connection from="E6" to="E23" fromLane="0" toLane="0" via=":J20_0_0" dir="R" state="M"/>
    <connection from="E6" to="E24" fromLane="1" toLane="0" via=":J20_1_0" dir="s" state="M"/>

    <connection from=":J11_0" to="E17" fromLane="0" toLane="0" dir="r" state="M"/>
    <connection from=":J11_1" to="E7.20" fromLane="0" toLane="0" dir="r" state="M"/>
    <connection from=":J11_2" to="E17" fromLane="0" toLane="0" dir="s" state="M"/>
    <connection from=":J13_0" to="E14" fromLane="0" toLane="0" dir="r" state="M"/>
    <connection from=":J13_1" to="E7" fromLane="0" toLane="0" dir="r" state="M"/>
    <connection from=":J13_2" to="E14" fromLane="0" toLane="0" dir="s" state="M"/>
    <connection from=":J18_0" to="E6" fromLane="0" toLane="0" dir="s" state="M"/>
    <connection from=":J18_0" to="E6" fromLane="1" toLane="1" dir="s" state="M"/>
    <connection from=":J19_0" to="E8" fromLane="0" toLane="0" dir="s" state="M"/>
    <connection from=":J20_0" to="E23" fromLane="0" toLane="0" dir="R" state="M"/>
    <connection from=":J20_1" to="E24" fromLane="0" toLane="0" dir="s" state="M"/>
    <connection from=":J22_0" to="E4" fromLane="0" toLane="0" dir="s" state="M"/>
    <connection from=":J22_1" to="E4" fromLane="0" toLane="1" dir="s" state="M"/>
    <connection from=":J3_0" to="E3" fromLane="0" toLane="0" dir="r" state="M"/>
    <connection from=":J3_1" to="-E0" fromLane="0" toLane="0" dir="s" state="M"/>
    <connection from=":J3_2" to="E1" fromLane="0" toLane="0" via=":J3_12_0" dir="l" state="m"/>
    <connection from=":J3_12" to="E1" fromLane="0" toLane="0" dir="l" state="M"/>
    <connection from=":J3_3" to="E2" fromLane="0" toLane="0" dir="r" state="M"/>
    <connection from=":J3_4" to="E3" fromLane="0" toLane="0" dir="s" state="M"/>
    <connection from=":J3_5" to="-E0" fromLane="0" toLane="0" dir="l" state="M"/>
    <connection from=":J3_6" to="E1" fromLane="0" toLane="0" dir="r" state="M"/>
    <connection from=":J3_7" to="E2" fromLane="0" toLane="0" dir="s" state="M"/>
    <connection from=":J3_8" to="E3" fromLane="0" toLane="0" via=":J3_13_0" dir="l" state="m"/>
    <connection from=":J3_13" to="E3" fromLane="0" toLane="0" dir="l" state="M"/>
    <connection from=":J3_9" to="-E0" fromLane="0" toLane="0" dir="r" state="M"/>
    <connection from=":J3_10" to="E1" fromLane="0" toLane="0" dir="s" state="M"/>
    <connection from=":J3_11" to="E2" fromLane="0" toLane="0" dir="l" state="M"/>
    <connection from=":J5_0" to="-E2" fromLane="0" toLane="0" dir="r" state="M"/>
    <connection from=":J5_1" to="E16" fromLane="0" toLane="0" dir="s" state="M"/>
    <connection from=":J5_2" to="E16" fromLane="0" toLane="0" dir="r" state="M"/>
    <connection from=":J6_0" to="E19" fromLane="0" toLane="0" dir="s" state="M"/>
    <connection from=":J6_1" to="-E3" fromLane="0" toLane="0" dir="s" state="M"/>
    <connection from=":J8_0" to="E15" fromLane="0" toLane="0" dir="r" state="M"/>
    <connection from=":J8_1" to="E5" fromLane="0" toLane="0" dir="r" state="M"/>
    <connection from=":J8_2" to="E15" fromLane="0" toLane="0" dir="s" state="M"/>
    <connection from=":J9_0" to="-E5" fromLane="0" toLane="0" dir="s" state="M"/>
    <connection from=":J9_1" to="E25" fromLane="0" toLane="0" dir="s" state="M"/>

    <roundabout nodes="J11 J13 J5 J8" edges="E14 E15 E16 E17"/>

</net>
